Stray ".ends" card: .ends
Circuit: * C:\Git\School\EE435\HW2\LTSpice\Problem4.asc

WARNING: Node N004 is floating.

WARNING: Less than two connections to node n004.  This node is used by m1.
Warning: Pd = 0 is less than W.
Warning: Ps = 0 is less than W.
Direct Newton iteration for .op point succeeded.

Date: Wed Jan 31 11:01:59 2024
Total elapsed time: 0.160 seconds.

tnom = 27
temp = 27
method = modified trap
totiter = 2124
traniter = 2096
tranpoints = 1049
accept = 1049
rejected = 0
matrix size = 8
fillins = 0
solver = Normal
Avg thread counts: 1.6/2.2/2.2/1.6
Matrix Compiler1: 300 bytes object code size  0.3/0.3/[0.3]
Matrix Compiler2: 542 bytes object code size  0.3/0.5/[0.2]

